data/039ieee.txt
 00/00/01                      100.0  0    0 0                                                                                                                                                                                                                                                             
BUS DATA FOLLOWS                   39 ITEMS
   1 BUS-1   100   1  1    1.047 -9.57  0.       0.        0.      0.       100.    1.       0.     0.      0.      0.        0                                                                                                                                                                            
   2 BUS-2   100   1  1    1.049 -7.011 0.       0.        0.      0.       100.    1.       0.     0.      0.      0.        0                                                                                                                                                                            
   3 BUS-3   100   1  1    1.03  -9.858 322.     2.4       0.      0.       100.    1.       0.     0.      0.      0.        0                                                                                                                                                                            
   4 BUS-4   100   1  1    1.003 -10.65 500.     184.      0.      0.       100.    1.       0.     0.      0.      0.        0                                                                                                                                                                            
   5 BUS-5   100   1  1    1.005 -9.468 0.       0.        0.      0.       100.    1.       0.     0.      0.      0.        0                                                                                                                                                                            
   6 BUS-6   100   1  1    1.007 -8.766 0.       0.        0.      0.       100.    1.       0.     0.      0.      0.        0                                                                                                                                                                            
   7 BUS-7   100   1  1    0.996 -10.97 233.8    84.       0.      0.       100.    1.       0.     0.      0.      0.        0                                                                                                                                                                            
   8 BUS-8   100   1  1    0.995 -11.47 522.     176.      0.      0.       100.    1.       0.     0.      0.      0.        0                                                                                                                                                                            
   9 BUS-9   100   1  1    1.028 -11.29 0.       0.        0.      0.       100.    1.       0.     0.      0.      0.        0                                                                                                                                                                            
  10 BUS-10  100   1  1    1.017 -6.381 0.       0.        0.      0.       100.    1.       0.     0.      0.      0.        0                                                                                                                                                                            
  11 BUS-11  100   1  1    1.012 -7.195 0.       0.        0.      0.       100.    1.       0.     0.      0.      0.        0                                                                                                                                                                            
  12 BUS-12  100   1  1    1.    -7.21  8.5      88.       0.      0.       100.    1.       0.     0.      0.      0.        0                                                                                                                                                                            
  13 BUS-13  100   1  1    1.014 -7.095 0.       0.        0.      0.       100.    1.       0.     0.      0.      0.        0                                                                                                                                                                            
  14 BUS-14  100   1  1    1.011 -8.764 0.       0.        0.      0.       100.    1.       0.     0.      0.      0.        0                                                                                                                                                                            
  15 BUS-15  100   1  1    1.015 -9.18  320.     153.      0.      0.       100.    1.       0.     0.      0.      0.        0                                                                                                                                                                            
  16 BUS-16  100   1  1    1.032 -7.776 329.     32.3      0.      0.       100.    1.       0.     0.      0.      0.        0                                                                                                                                                                            
  17 BUS-17  100   1  1    1.034 -8.774 0.       0.        0.      0.       100.    1.       0.     0.      0.      0.        0                                                                                                                                                                            
  18 BUS-18  100   1  1    1.031 -9.615 158.     30.       0.      0.       100.    1.       0.     0.      0.      0.        0                                                                                                                                                                            
  19 BUS-19  100   1  1    1.05  -3.152 0.       0.        0.      0.       100.    1.       0.     0.      0.      0.        0                                                                                                                                                                            
  20 BUS-20  100   1  1    0.991 -4.563 680.     103.      0.      0.       100.    1.       0.     0.      0.      0.        0                                                                                                                                                                            
  21 BUS-21  100   1  1    1.032 -5.371 274.     115.      0.      0.       100.    1.       0.     0.      0.      0.        0                                                                                                                                                                            
  22 BUS-22  100   1  1    1.05  -0.923 0.       0.        0.      0.       100.    1.       0.     0.      0.      0.        0                                                                                                                                                                            
  23 BUS-23  100   1  1    1.045 -1.122 247.5    84.6      0.      0.       100.    1.       0.     0.      0.      0.        0                                                                                                                                                                            
  24 BUS-24  100   1  1    1.037 -7.656 308.6    -92.2     0.      0.       100.    1.       0.     0.      0.      0.        0                                                                                                                                                                            
  25 BUS-25  100   1  1    1.057 -5.649 224.     47.2      0.      0.       100.    1.       0.     0.      0.      0.        0                                                                                                                                                                            
  26 BUS-26  100   1  1    1.052 -6.905 139.     17.       0.      0.       100.    1.       0.     0.      0.      0.        0                                                                                                                                                                            
  27 BUS-27  100   1  1    1.037 -8.917 281.     75.5      0.      0.       100.    1.       0.     0.      0.      0.        0                                                                                                                                                                            
  28 BUS-28  100   1  1    1.05  -3.394 206.     27.6      0.      0.       100.    1.       0.     0.      0.      0.        0                                                                                                                                                                            
  29 BUS-29  100   1  1    1.05  -0.635 283.5    26.9      0.      0.       100.    1.       0.     0.      0.      0.        0                                                                                                                                                                            
  30 BUS-30  100   1  1  2 1.047 -4.591 0.       0.        250.    144.9193 100.    1.0475 999900 -99990    0.      0.        0                                                                                                                                                                            
  31 BUS-31  100   1  1  3 0.982 0.     9.2      4.6       572.8349 207.0362 100.    .98200 999900 -99990    0.      0.        0                                                                                                                                                                            
  32 BUS-32  100   1  1  2 0.983 1.6155 0.       0.        650.    205.7308 100.    .98310 999900 -99990    0.      0.        0                                                                                                                                                                            
  33 BUS-33  100   1  1  2 0.997 2.0646 0.       0.        632.    108.9353 100.    .99720 999900 -99990    0.      0.        0                                                                                                                                                                            
  34 BUS-34  100   1  1  2 1.012 0.6262 0.       0.        508.    166.9861 100.    1.0123 999900 -99990    0.      0.        0                                                                                                                                                                            
  35 BUS-35  100   1  1  2 1.049 4.0369 0.       0.        650.    211.1116 100.    1.0493 999900 -99990    0.      0.        0                                                                                                                                                                            
  36 BUS-36  100   1  1  2 1.063 6.7295 0.       0.        560.    100.4374 100.    1.0635 999900 -99990    0.      0.        0                                                                                                                                                                            
  37 BUS-37  100   1  1  2 1.027 1.1354 0.       0.        540.    0.64734  100.    1.0278 999900 -99990    0.      0.        0                                                                                                                                                                            
  38 BUS-38  100   1  1  2 1.026 6.4281 0.       0.        830.    22.65884 100.    1.0265 999900 -99990    0.      0.        0                                                                                                                                                                            
  39 BUS-39  100   1  1  2 1.03  -11.1  1104.    250.      1000.   87.8826  100.    1.03   999900 -99990    0.      0.        0                                                                                                                                                                            
-999
BRANCH DATA FOLLOWS                   46 ITEMS
   2    1  1  1      0.0035    0.0411      0.6987 0    0     0      0    0  0      0      0      0       0      0      0                                                                                                                                                                                   
  39    1  1  1      0.001     0.025       0.75   0    0     0      0    0  0      0      0      0       0      0      0                                                                                                                                                                                   
   3    2  1  1      0.0013    0.0151      0.2572 0    0     0      0    0  0      0      0      0       0      0      0                                                                                                                                                                                   
  25    2  1  1      0.007     0.0086      0.146  0    0     0      0    0  0      0      0      0       0      0      0                                                                                                                                                                                   
   4    3  1  1      0.0013    0.0213      0.2214 0    0     0      0    0  0      0      0      0       0      0      0                                                                                                                                                                                   
  18    3  1  1      0.0011    0.0133      0.2138 0    0     0      0    0  0      0      0      0       0      0      0                                                                                                                                                                                   
   5    4  1  1      0.0008    0.0128      0.1342 0    0     0      0    0  0      0      0      0       0      0      0                                                                                                                                                                                   
  14    4  1  1      0.0008    0.0129      0.1382 0    0     0      0    0  0      0      0      0       0      0      0                                                                                                                                                                                   
   6    5  1  1      0.0002    0.0026      0.0434 0    0     0      0    0  0      0      0      0       0      0      0                                                                                                                                                                                   
   8    5  1  1      0.0008    0.0112      0.1476 0    0     0      0    0  0      0      0      0       0      0      0                                                                                                                                                                                   
   7    6  1  1      0.0006    0.0092      0.113  0    0     0      0    0  0      0      0      0       0      0      0                                                                                                                                                                                   
  11    6  1  1      0.0007    0.0082      0.1389 0    0     0      0    0  0      0      0      0       0      0      0                                                                                                                                                                                   
   8    7  1  1      0.0004    0.0046      0.078  0    0     0      0    0  0      0      0      0       0      0      0                                                                                                                                                                                   
   9    8  1  1      0.0023    0.0363      0.3804 0    0     0      0    0  0      0      0      0       0      0      0                                                                                                                                                                                   
  39    9  1  1      0.001     0.025       1.2    0    0     0      0    0  0      0      0      0       0      0      0                                                                                                                                                                                   
  11   10  1  1      0.0004    0.0043      0.0729 0    0     0      0    0  0      0      0      0       0      0      0                                                                                                                                                                                   
  13   10  1  1      0.0004    0.0043      0.0729 0    0     0      0    0  0      0      0      0       0      0      0                                                                                                                                                                                   
  14   13  1  1      0.0009    0.0101      0.1723 0    0     0      0    0  0      0      0      0       0      0      0                                                                                                                                                                                   
  15   14  1  1      0.0018    0.0217      0.366  0    0     0      0    0  0      0      0      0       0      0      0                                                                                                                                                                                   
  16   15  1  1      0.0009    0.0094      0.171  0    0     0      0    0  0      0      0      0       0      0      0                                                                                                                                                                                   
  17   16  1  1      0.0007    0.0089      0.1342 0    0     0      0    0  0      0      0      0       0      0      0                                                                                                                                                                                   
  19   16  1  1      0.0016    0.0195      0.304  0    0     0      0    0  0      0      0      0       0      0      0                                                                                                                                                                                   
  21   16  1  1      0.0008    0.0135      0.2548 0    0     0      0    0  0      0      0      0       0      0      0                                                                                                                                                                                   
  24   16  1  1      0.0003    0.0059      0.068  0    0     0      0    0  0      0      0      0       0      0      0                                                                                                                                                                                   
  18   17  1  1      0.0007    0.0082      0.1319 0    0     0      0    0  0      0      0      0       0      0      0                                                                                                                                                                                   
  27   17  1  1      0.0013    0.0173      0.3216 0    0     0      0    0  0      0      0      0       0      0      0                                                                                                                                                                                   
  22   21  1  1      0.0008    0.014       0.2565 0    0     0      0    0  0      0      0      0       0      0      0                                                                                                                                                                                   
  23   22  1  1      0.0006    0.0096      0.1846 0    0     0      0    0  0      0      0      0       0      0      0                                                                                                                                                                                   
  24   23  1  1      0.0022    0.035       0.361  0    0     0      0    0  0      0      0      0       0      0      0                                                                                                                                                                                   
  26   25  1  1      0.0032    0.0323      0.513  0    0     0      0    0  0      0      0      0       0      0      0                                                                                                                                                                                   
  27   26  1  1      0.0014    0.0147      0.2396 0    0     0      0    0  0      0      0      0       0      0      0                                                                                                                                                                                   
  28   26  1  1      0.0043    0.0474      0.7802 0    0     0      0    0  0      0      0      0       0      0      0                                                                                                                                                                                   
  29   26  1  1      0.0057    0.0625      1.029  0    0     0      0    0  0      0      0      0       0      0      0                                                                                                                                                                                   
  29   28  1  1      0.0014    0.0151      0.249  0    0     0      0    0  0      0      0      0       0      0      0                                                                                                                                                                                   
  12   11  1  1   2  0.0016    0.0435      0.     0    0     0      0    0  1.006  0      0      0       0      0      0                                                                                                                                                                                   
  12   13  1  1   2  0.0016    0.0435      0.     0    0     0      0    0  1.006  0      0      0       0      0      0                                                                                                                                                                                   
   6   31  1  1   2  0.        0.025       0.     0    0     0      0    0  1.07   0      0      0       0      0      0                                                                                                                                                                                   
  10   32  1  1   2  0.        0.02        0.     0    0     0      0    0  1.07   0      0      0       0      0      0                                                                                                                                                                                   
  19   33  1  1   2  0.0007    0.0142      0.     0    0     0      0    0  1.07   0      0      0       0      0      0                                                                                                                                                                                   
  20   34  1  1   2  0.0009    0.018       0.     0    0     0      0    0  1.009  0      0      0       0      0      0                                                                                                                                                                                   
  22   35  1  1   2  0.        0.0143      0.     0    0     0      0    0  1.025  0      0      0       0      0      0                                                                                                                                                                                   
  23   36  1  1   2  0.0005    0.0272      0.     0    0     0      0    0  1.     0      0      0       0      0      0                                                                                                                                                                                   
  25   37  1  1   2  0.0006    0.0232      0.     0    0     0      0    0  1.025  0      0      0       0      0      0                                                                                                                                                                                   
   2   30  1  1   2  0.        0.0181      0.     0    0     0      0    0  1.025  0      0      0       0      0      0                                                                                                                                                                                   
  29   38  1  1   2  0.0008    0.0156      0.     0    0     0      0    0  1.025  0      0      0       0      0      0                                                                                                                                                                                   
  19   20  1  1   2  0.0007    0.0138      0.     0    0     0      0    0  1.06   0      0      0       0      0      0                                                                                                                                                                                   
-999
LOSS ZONES FOLLOWS   0 ITEMS
-99
INTERCHANGE DATA FOLLOWS      0 ITEMS
-9
TIE LINES FOLLOWS             0 ITEMS
-999
END OF DATA